8
Generated by autodE on: 2025-09-19. charge = 0 mult = 1 E = -14.459938 Ha
C     -0.95805   -0.10116    0.08217
C      0.46172    0.32746   -0.14953
O      0.81424    1.37306   -0.62148
O      1.33225   -0.61892    0.23145
H     -1.05344   -0.53327    1.07424
H     -1.21599   -0.86568   -0.64768
H     -1.62322    0.74846   -0.03283
H      2.24259   -0.33005    0.06358
